[Format]      =  4.0
[Frequency]   =  0
[Precision]   =  1e-008
[MinAngle]    =  30
[DoSmartMesh] =  1
[Depth]       =  4
[LengthUnits] =  centimeters
[ProblemType] =  planar
[Coordinates] =  cartesian
[ACSolver]    =  0
[PrevType]    =  0
[PrevSoln]    =  ""
[Comment]     =  "Add comments here."
[PointProps]   = 0
[BdryProps]   = 1
  <BeginBdry>
    <BdryName> = "A=0"
    <BdryType> = 0
    <A_0> = 0
    <A_1> = 0
    <A_2> = 0
    <Phi> = 0
    <c0> = 0
    <c0i> = 0
    <c1> = 0
    <c1i> = 0
    <Mu_ssd> = 0
    <Sigma_ssd> = 0
    <innerangle> = 0
    <outerangle> = 0
  <EndBdry>
[BlockProps]  = 3
  <BeginBlock>
    <BlockName> = "Magnet"
    <Mu_x> = 1.05
    <Mu_y> = 1.05
    <H_c> = 909456.81766797299
    <H_cAngle> = 0
    <J_re> = 0
    <J_im> = 0
    <Sigma> = 0
    <d_lam> = 0
    <Phi_h> = 0
    <Phi_hx> = 0
    <Phi_hy> = 0
    <LamType> = 0
    <LamFill> = 1
    <NStrands> = 0
    <WireD> = 0
    <BHPoints> = 0
  <EndBlock>
  <BeginBlock>
    <BlockName> = "Air"
    <Mu_x> = 1
    <Mu_y> = 1
    <H_c> = 0
    <H_cAngle> = 0
    <J_re> = 0
    <J_im> = 0
    <Sigma> = 0
    <d_lam> = 0
    <Phi_h> = 0
    <Phi_hx> = 0
    <Phi_hy> = 0
    <LamType> = 0
    <LamFill> = 1
    <NStrands> = 0
    <WireD> = 0
    <BHPoints> = 0
  <EndBlock>
  <BeginBlock>
    <BlockName> = "Steel"
    <Mu_x> = 5000
    <Mu_y> = 5000
    <H_c> = 0
    <H_cAngle> = 0
    <J_re> = 0
    <J_im> = 0
    <Sigma> = 0
    <d_lam> = 0
    <Phi_h> = 0
    <Phi_hx> = 0
    <Phi_hy> = 0
    <LamType> = 0
    <LamFill> = 1
    <NStrands> = 0
    <WireD> = 0
    <BHPoints> = 0
  <EndBlock>
[CircuitProps]  = 0
[NumPoints] = 20
2.1449244407331385	1.7998053071223099	0	2
-2.1449244407331385	-1.7998053071223099	0	2
2.3900586625312115	2.0054973422220024	0	2
-2.3900586625312115	-2.0054973422220024	0	2
3.2000000000000002	0	0	0
-3.2000000000000002	0	0	0
-2.144924440733138	1.7998053071223099	0	2
2.144924440733138	-1.7998053071223099	0	2
-2.390058662531211	2.0054973422220024	0	2
2.390058662531211	-2.0054973422220024	0	2
1.7998053071223099	2.144924440733138	0	2
2.0054973422220024	2.390058662531211	0	2
-2.0054973422220024	-2.390058662531211	0	2
-1.7998053071223099	-2.144924440733138	0	2
1.7998053071223099	-2.1449244407331385	0	2
2.0054973422220015	-2.390058662531211	0	2
-2.0054973422220015	2.390058662531211	0	2
-1.7998053071223099	2.1449244407331385	0	2
4	0	0	0
-4	4.8985871965894128e-016	0	0
[NumSegments] = 8
0	2	-1	0	0	2
7	9	-1	0	0	2
3	1	-1	0	0	2
8	6	-1	0	0	2
10	11	-1	0	0	2
12	13	-1	0	0	2
14	15	-1	0	0	2
16	17	-1	0	0	2
[NumArcSegments] = 16
0	10	10	1	0	0	2	1
17	6	10.000000000000004	1	0	0	2	1
6	1	80	1	0	0	2	1
1	13	10	1	0	0	2	1
14	7	10.000000000000004	1	0	0	2	1
7	0	80	1	0	0	2	1
11	16	80.000000000000043	1	0	0	2	1
8	3	80	1	0	0	2	1
12	15	80.000000000000043	1	0	0	2	1
9	2	80	1	0	0	2	1
4	5	180	1	0	0	3	1
5	4	180	1	0	0	3	1
10	17	80.000000000000043	1	0	0	2	1
13	14	80	1	0	0	2	1
18	19	180	1	1	0	3	1
19	18	180	1	1	0	3	1
[NumHoles] = 0
[NumBlockLabels] = 7
-0.20800000000000002	0.27200000000000002	3	-1	0	0	2	1	0
2.9600000000000004	0	1	-1	0	90	3	1	0
-2.9600000000000004	0	1	-1	0	90	3	1	0
1.8124772627380829e-016	2.9600000000000004	1	-1	0	90	3	1	0
-1.8124772627380829e-016	-2.9600000000000004	1	-1	0	90	3	1	0
0	3.5200000000000005	3	-1	0	0	3	1	0
2.0720000000000001	2.0720000000000001	2	-1	0	0	3	1	0
